/*--------------------------------*- C++ -*----------------------------------*\
| =========                 |                                                 |
| \\      /  F ield         | OpenFOAM: The Open Source CFD Toolbox           |
|  \\    /   O peration     | Version:  v2012                                 |
|   \\  /    A nd           | Website:  www.openfoam.com                      |
|    \\/     M anipulation  |                                                 |
\*---------------------------------------------------------------------------*/
FoamFile
{
    version     2.0;
    format      ascii;
    class       dictionary;
    location    "constant";
    object      dynamicMeshDict;
}

dynamicFvMesh   dynamicMotionSolverFvMesh;

// Use rigidBodyMotion for multiple rotating bodies
motionSolverLibs ("librigidBodyMotion.so"); // Changed from fvMotionSolvers
motionSolver    rigidBodyMotion;

rigidBodyMotionCoeffs
{
    report      on;

    // Inner blade rotation
    innerBlade
    {
        type        rotating;
        n           158;   // Angular velocity (rad/s ≈ 1500 RPM)
        axis        (0 0 1); // Rotate around Z-axis (typical for propellers)
        patch       "innerBladeSurface"; // Patch name for inner blades
        cellZone    innerCylinderSmall; // Cell zone for inner blade region
    }

    // Outer blade rotation (added)
    outerBlade
    {
        type        rotating;
        n           53;    // ~500 RPM (adjust for vortex handoff ratio)
        axis        (0 0 1);
        patch       "outerBladeSurface";
        cellZone    outerCylinderLarge; // Define this cellZone in mesh
    }
}